!- Generated with pyidf version 0.2.1, generation date: 2018-01-19 13:17:17.243000
!- Validation level: no

!- Previous comments:

!-Generator IDFEditor 1.50
!-Option SortedOrder
!-NOTE: All comments with '!-' are ignored by the IDFEditor and are generated automatically.
!-      Use '!' comments if they need to be retained when using the IDFEditor.
!-   ===========  ALL OBJECTS IN CLASS: VERSION ===========

!-   ===========  ALL OBJECTS OF GROUP: Simulation Parameters  ===========

  Version,8.8;

  SimulationControl,
    Yes,                     !- Do Zone Sizing Calculation 
    No,                      !- Do System Sizing Calculation 
    No,                      !- Do Plant Sizing Calculation 
    No,                      !- Run Simulation for Sizing Periods 
    Yes;                     !- Run Simulation for Weather File Run Periods 

  Timestep,6;

  Building,
    caso_0005.idf,           !- Name 
    0.0,                     !- North Axis {deg}
    City,                    !- Terrain 
    0.5,                     !- Loads Convergence Tolerance Value 
    0.5,                     !- Temperature Convergence Tolerance Value {deltaC}
    FullInteriorAndExterior,  !- Solar Distribution 
    ,                        !- Maximum Number of Warmup Days 
    ;                        !- Minimum Number of Warmup Days 

!-   ===========  ALL OBJECTS OF GROUP: Location and Climate  ===========

  SizingPeriod:WeatherFileDays,
    ano,                     !- Name 
    1,                       !- Begin Month 
    1,                       !- Begin Day of Month 
    12,                      !- End Month 
    31,                      !- End Day of Month 
    Monday,                  !- Day of Week for Start Day 
    No,                      !- Use Weather File Daylight Saving Period 
    No;                      !- Use Weather File Rain and Snow Indicators 

  RunPeriod,
    Ano,                     !- Name 
    1,                       !- Begin Month 
    1,                       !- Begin Day of Month 
    12,                      !- End Month 
    31,                      !- End Day of Month 
    UseWeatherFile,          !- Day of Week for Start Day 
    No,                      !- Use Weather File Holidays and Special Days 
    No,                      !- Use Weather File Daylight Saving Period 
    No,                      !- Apply Weekend Holiday Rule 
    No,                      !- Use Weather File Rain Indicators 
    No,                      !- Use Weather File Snow Indicators 
    1;                       !- Number of Times Runperiod to be Repeated 

  Site:GroundTemperature:BuildingSurface,20.0,20.0,20.0,20.0,20.0,20.0,20.0,20.0,20.0,20.0,20.0,20.0;

  Site:GroundReflectance,0.2,0.2,0.2,0.2,0.2,0.2,0.2,0.2,0.2,0.2,0.2,0.2;

!-   ===========  ALL OBJECTS OF GROUP: Schedules  ===========

  ScheduleTypeLimits,
    fraction,                !- Name 
    0.0,                     !- Lower Limit Value 
    1.0,                     !- Upper Limit Value 
    Continuous;              !- Numeric Type 

  ScheduleTypeLimits,
    qualquer,                !- Name 
    -100.0,                  !- Lower Limit Value 
    1000.0,                  !- Upper Limit Value 
    Continuous;              !- Numeric Type 

  ScheduleTypeLimits,
    TEMPERATURE,             !- Name 
    0.0,                     !- Lower Limit Value 
    50.0,                    !- Upper Limit Value 
    Continuous,              !- Numeric Type 
    Temperature;             !- Unit Type 

  ScheduleTypeLimits,
    On_Off,                  !- Name 
    0.0,                     !- Lower Limit Value 
    1.0,                     !- Upper Limit Value 
    Discrete,                !- Numeric Type 
    Control;                 !- Unit Type 

  ScheduleTypeLimits,
    fracao,                  !- Name 
    0.0,                     !- Lower Limit Value 
    1.0,                     !- Upper Limit Value 
    Continuous,              !- Numeric Type 
    Percent;                 !- Unit Type 

  ScheduleTypeLimits,
    atividade,               !- Name 
    0.0,                     !- Lower Limit Value 
    1000.0,                  !- Upper Limit Value 
    Continuous,              !- Numeric Type 
    ActivityLevel;           !- Unit Type 

  ScheduleTypeLimits,
    control,                 !- Name 
    0.0,                     !- Lower Limit Value 
    4.0,                     !- Upper Limit Value 
    Discrete;                !- Numeric Type 

  Schedule:Compact,
    OcupSala,                !- Name 
    fracao,                  !- Schedule Type Limits Name 
    Through: 12/31,          !- Field 
    For: AllDays,            !- Field 
    Until: 14:00,0,          !- Fields 5 - 7
    Until: 18:00,.5,         !- Fields 7 - 9
    Until: 22:00,1,          !- Fields 9 - 11
    Until: 24:00,0;          !- Fields 11 - 13

  Schedule:Compact,
    OcupDorm,                !- Name 
    fracao,                  !- Schedule Type Limits Name 
    Through: 12/31,          !- Field 
    For: AllDays,            !- Field 
    Until:  8:00,1,          !- Fields 5 - 7
    Until: 22:00,0,          !- Fields 7 - 9
    Until: 24:00,1;          !- Fields 9 - 11

  Schedule:Compact,
    IlumSala,                !- Name 
    fracao,                  !- Schedule Type Limits Name 
    Through: 12/31,          !- Field 
    For: AllDays,            !- Field 
    Until: 16:00,0,          !- Fields 5 - 7
    Until: 22:00,1,          !- Fields 7 - 9
    Until: 24:00,0;          !- Fields 9 - 11

  Schedule:Compact,
    IlumDorm1,               !- Name 
    fracao,                  !- Schedule Type Limits Name 
    Through: 12/31,          !- Field 
    For: AllDays,            !- Field 
    Until: 6:00,0,           !- Fields 5 - 7
    Until: 8:00,1,           !- Fields 7 - 9
    Until: 22:00,0,          !- Fields 9 - 11
    Until: 24:00,1;          !- Fields 11 - 13

  Schedule:Compact,
    IlumDorm2,               !- Name 
    fracao,                  !- Schedule Type Limits Name 
    Through: 12/31,          !- Field 
    For: AllDays,            !- Field 
    Until: 6:00,0,           !- Fields 5 - 7
    Until: 8:00,1,           !- Fields 7 - 9
    Until: 22:00,0,          !- Fields 9 - 11
    Until: 24:00,1;          !- Fields 11 - 13

  Schedule:Compact,
    IlumDorm3,               !- Name 
    fracao,                  !- Schedule Type Limits Name 
    Through: 12/31,          !- Field 
    For: AllDays,            !- Field 
    Until: 6:00,0,           !- Fields 5 - 7
    Until: 8:00,1,           !- Fields 7 - 9
    Until: 22:00,0,          !- Fields 9 - 11
    Until: 24:00,1;          !- Fields 11 - 13

  Schedule:Compact,
    AtivSala,                !- Name 
    atividade,               !- Schedule Type Limits Name 
    Through: 12/31,          !- Field 
    For:AllDays,             !- Field 
    Until: 24:00,108;        !- Fields 5 - 7

  Schedule:Compact,
    AtivDorm,                !- Name 
    atividade,               !- Schedule Type Limits Name 
    Through: 12/31,          !- Field 
    For:AllDays,             !- Field 
    Until: 24:00,81;         !- Fields 5 - 7

  Schedule:Compact,
    EquipSala,               !- Name 
    fracao,                  !- Schedule Type Limits Name 
    Through: 12/31,          !- Field 
    For:AllDays,             !- Field 
    Until: 14:00,0,          !- Fields 5 - 7
    Until: 22:00,1,          !- Fields 7 - 9
    Until: 24:00,0;          !- Fields 9 - 11

  Schedule:Constant,HVAC_Sala,On_Off,0.0;

  Schedule:Constant,VN_Sala,On_Off,1.0;

  Schedule:Constant,HVAC_Dorm1,On_Off,0.0;

  Schedule:Constant,VN_Dorm1,On_Off,1.0;

  Schedule:Constant,HVAC_Dorm2,On_Off,0.0;

  Schedule:Constant,VN_Dorm2,On_Off,1.0;

  Schedule:Constant,HVAC_Dorm3,On_Off,0.0;

  Schedule:Constant,VN_Dorm3,On_Off,1.0;

  Schedule:Constant,Veneziana_Dorm1,On_Off,0.0;

  Schedule:Constant,Veneziana_Dorm2,On_Off,0.0;

  Schedule:Constant,Veneziana_Dorm3,On_Off,0.0;

  Schedule:Constant,Veneziana_Sala,On_Off,0.0;

!-   ===========  ALL OBJECTS OF GROUP: Surface Construction Elements  ===========

  Material,
    RevestExt,               !- Name 
    Rough,                   !- Roughness 
    0.025,                   !- Thickness {m}
    1.15,                    !- Conductivity {W/m-K}
    2000.0,                  !- Density {kg/m3}
    1000.0,                  !- Specific Heat {J/kg-K}
    0.9,                     !- Thermal Absorptance 
    0.5,              !- Solar Absorptance 
    0.5;              !- Visible Absorptance 

  Material,
    RevestInt,               !- Name 
    Rough,                   !- Roughness 
    0.025,                   !- Thickness {m}
    1.15,                    !- Conductivity {W/m-K}
    2000.0,                  !- Density {kg/m3}
    1000.0,                  !- Specific Heat {J/kg-K}
    0.9,                     !- Thermal Absorptance 
    0.4,                     !- Solar Absorptance 
    0.4;                     !- Visible Absorptance 

  Material,
    Tij8Furos2.24,           !- Name 
    Rough,                   !- Roughness 
    0.033,                   !- Thickness {m}
    0.9,                     !- Conductivity {W/m-K}
    1103.0,                  !- Density {kg/m3}
    920.0,                   !- Specific Heat {J/kg-K}
    0.9,                     !- Thermal Absorptance 
    0.7,                     !- Solar Absorptance 
    0.7;                     !- Visible Absorptance 

  Material,
    EPS1mm,                  !- Name 
    MediumRough,             !- Roughness 
    0.001,                   !- Thickness {m}
    0.035,                   !- Conductivity {W/m-K}
    30.0,                    !- Density {kg/m3}
    1400.0,                  !- Specific Heat {J/kg-K}
    0.9,                     !- Thermal Absorptance 
    0.8,                     !- Solar Absorptance 
    0.8;                     !- Visible Absorptance 

  Material,
    EPS3mm,                  !- Name 
    MediumRough,             !- Roughness 
    0.003,                   !- Thickness {m}
    0.035,                   !- Conductivity {W/m-K}
    30.0,                    !- Density {kg/m3}
    1400.0,                  !- Specific Heat {J/kg-K}
    0.9,                     !- Thermal Absorptance 
    0.8,                     !- Solar Absorptance 
    0.8;                     !- Visible Absorptance 

  Material,
    EPS1cm,                  !- Name 
    MediumRough,             !- Roughness 
    0.01,                    !- Thickness {m}
    0.035,                   !- Conductivity {W/m-K}
    30.0,                    !- Density {kg/m3}
    1400.0,                  !- Specific Heat {J/kg-K}
    0.9,                     !- Thermal Absorptance 
    0.8,                     !- Solar Absorptance 
    0.8;                     !- Visible Absorptance 

  Material,
    EPS1.5cm,                !- Name 
    MediumRough,             !- Roughness 
    0.015,                   !- Thickness {m}
    0.035,                   !- Conductivity {W/m-K}
    30.0,                    !- Density {kg/m3}
    1400.0,                  !- Specific Heat {J/kg-K}
    0.9,                     !- Thermal Absorptance 
    0.8,                     !- Solar Absorptance 
    0.8;                     !- Visible Absorptance 

  Material,
    EPS2cm,                  !- Name 
    MediumRough,             !- Roughness 
    0.02,                    !- Thickness {m}
    0.035,                   !- Conductivity {W/m-K}
    30.0,                    !- Density {kg/m3}
    1400.0,                  !- Specific Heat {J/kg-K}
    0.9,                     !- Thermal Absorptance 
    0.8,                     !- Solar Absorptance 
    0.8;                     !- Visible Absorptance 

  Material,
    EPS2.5cm,                !- Name 
    MediumRough,             !- Roughness 
    0.025,                   !- Thickness {m}
    0.035,                   !- Conductivity {W/m-K}
    30.0,                    !- Density {kg/m3}
    1400.0,                  !- Specific Heat {J/kg-K}
    0.9,                     !- Thermal Absorptance 
    0.8,                     !- Solar Absorptance 
    0.8;                     !- Visible Absorptance 

  Material,
    EPS4cm,                  !- Name 
    MediumRough,             !- Roughness 
    0.04,                    !- Thickness {m}
    0.035,                   !- Conductivity {W/m-K}
    30.0,                    !- Density {kg/m3}
    1400.0,                  !- Specific Heat {J/kg-K}
    0.9,                     !- Thermal Absorptance 
    0.8,                     !- Solar Absorptance 
    0.8;                     !- Visible Absorptance 

  Material,
    EPS6cm,                  !- Name 
    MediumRough,             !- Roughness 
    0.06,                    !- Thickness {m}
    0.035,                   !- Conductivity {W/m-K}
    30.0,                    !- Density {kg/m3}
    1400.0,                  !- Specific Heat {J/kg-K}
    0.9,                     !- Thermal Absorptance 
    0.8,                     !- Solar Absorptance 
    0.8;                     !- Visible Absorptance 

  Material,
    TijMacicoExt10cm,        !- Name 
    MediumSmooth,            !- Roughness 
    0.1,                     !- Thickness {m}
    0.9,                     !- Conductivity {W/m-K}
    1600.0,                  !- Density {kg/m3}
    920.0,                   !- Specific Heat {J/kg-K}
    0.9,                     !- Thermal Absorptance 
    0.6,                     !- Solar Absorptance 
    0.6;                     !- Visible Absorptance 

  Material,
    TijMacicoInt,            !- Name 
    MediumSmooth,            !- Roughness 
    0.1,                     !- Thickness {m}
    0.9,                     !- Conductivity {W/m-K}
    1600.0,                  !- Density {kg/m3}
    920.0,                   !- Specific Heat {J/kg-K}
    0.9,                     !- Thermal Absorptance 
    0.3,                     !- Solar Absorptance 
    0.3;                     !- Visible Absorptance 

  Material,
    ConcParExt10cm,          !- Name 
    Rough,                   !- Roughness 
    0.1,                     !- Thickness {m}
    1.75,                    !- Conductivity {W/m-K}
    2500.0,                  !- Density {kg/m3}
    1000.0,                  !- Specific Heat {J/kg-K}
    0.9,                     !- Thermal Absorptance 
    0.6,                     !- Solar Absorptance 
    0.6;                     !- Visible Absorptance 

  Material,
    ConcParInt10cm,          !- Name 
    Rough,                   !- Roughness 
    0.1,                     !- Thickness {m}
    1.75,                    !- Conductivity {W/m-K}
    2500.0,                  !- Density {kg/m3}
    1000.0,                  !- Specific Heat {J/kg-K}
    0.9,                     !- Thermal Absorptance 
    0.3,                     !- Solar Absorptance 
    0.3;                     !- Visible Absorptance 

  Material,
    FibroParExt,             !- Name 
    Smooth,                  !- Roughness 
    0.012,                   !- Thickness {m}
    0.95,                    !- Conductivity {W/m-K}
    1900.0,                  !- Density {kg/m3}
    840.0,                   !- Specific Heat {J/kg-K}
    0.9,                     !- Thermal Absorptance 
    0.5,              !- Solar Absorptance 
    0.5;              !- Visible Absorptance 

  Material,
    GessoParInt,             !- Name 
    MediumSmooth,            !- Roughness 
    0.0125,                  !- Thickness {m}
    0.35,                    !- Conductivity {W/m-K}
    750.0,                   !- Density {kg/m3}
    840.0,                   !- Specific Heat {J/kg-K}
    0.9,                     !- Thermal Absorptance 
    0.3,                     !- Solar Absorptance 
    0.3;                     !- Visible Absorptance 

  Material,
    LaVidro8cm,              !- Name 
    MediumRough,             !- Roughness 
    0.08,                    !- Thickness {m}
    0.045,                   !- Conductivity {W/m-K}
    50.0,                    !- Density {kg/m3}
    700.0,                   !- Specific Heat {J/kg-K}
    0.9,                     !- Thermal Absorptance 
    0.8,                     !- Solar Absorptance 
    0.8;                     !- Visible Absorptance 

  Material,
    LaVidro3.4cm,            !- Name 
    MediumRough,             !- Roughness 
    0.034,                   !- Thickness {m}
    0.045,                   !- Conductivity {W/m-K}
    50.0,                    !- Density {kg/m3}
    700.0,                   !- Specific Heat {J/kg-K}
    0.9,                     !- Thermal Absorptance 
    0.8,                     !- Solar Absorptance 
    0.8;                     !- Visible Absorptance 

  Material,
    LaVidro2cm,              !- Name 
    MediumRough,             !- Roughness 
    0.02,                    !- Thickness {m}
    0.045,                   !- Conductivity {W/m-K}
    50.0,                    !- Density {kg/m3}
    700.0,                   !- Specific Heat {J/kg-K}
    0.9,                     !- Thermal Absorptance 
    0.8,                     !- Solar Absorptance 
    0.8;                     !- Visible Absorptance 

  Material,
    LaVidro1cm,              !- Name 
    MediumRough,             !- Roughness 
    0.0102,                  !- Thickness {m}
    0.045,                   !- Conductivity {W/m-K}
    50.0,                    !- Density {kg/m3}
    700.0,                   !- Specific Heat {J/kg-K}
    0.9,                     !- Thermal Absorptance 
    0.8,                     !- Solar Absorptance 
    0.8;                     !- Visible Absorptance 

  Material,
    LaVidro2.5mm,            !- Name 
    MediumRough,             !- Roughness 
    0.0025,                  !- Thickness {m}
    0.045,                   !- Conductivity {W/m-K}
    50.0,                    !- Density {kg/m3}
    700.0,                   !- Specific Heat {J/kg-K}
    0.9,                     !- Thermal Absorptance 
    0.8,                     !- Solar Absorptance 
    0.8;                     !- Visible Absorptance 

  Material,
    LaVidro5mm,              !- Name 
    MediumRough,             !- Roughness 
    0.005,                   !- Thickness {m}
    0.045,                   !- Conductivity {W/m-K}
    50.0,                    !- Density {kg/m3}
    700.0,                   !- Specific Heat {J/kg-K}
    0.9,                     !- Thermal Absorptance 
    0.8,                     !- Solar Absorptance 
    0.8;                     !- Visible Absorptance 

  Material,
    RevestCob,               !- Name 
    Rough,                   !- Roughness 
    0.025,                   !- Thickness {m}
    1.15,                    !- Conductivity {W/m-K}
    2000.0,                  !- Density {kg/m3}
    1000.0,                  !- Specific Heat {J/kg-K}
    0.9,                     !- Thermal Absorptance 
    0.3,                     !- Solar Absorptance 
    0.3;                     !- Visible Absorptance 

  Material,
    RevestCob1cm,            !- Name 
    Rough,                   !- Roughness 
    0.01,                    !- Thickness {m}
    1.15,                    !- Conductivity {W/m-K}
    2500.0,                  !- Density {kg/m3}
    1000.0,                  !- Specific Heat {J/kg-K}
    0.9,                     !- Thermal Absorptance 
    0.5,              !- Solar Absorptance 
    0.5;              !- Visible Absorptance 

  Material,
    RevestCob4cm,            !- Name 
    Rough,                   !- Roughness 
    0.04,                    !- Thickness {m}
    1.15,                    !- Conductivity {W/m-K}
    2500.0,                  !- Density {kg/m3}
    1000.0,                  !- Specific Heat {J/kg-K}
    0.9,                     !- Thermal Absorptance 
    0.3,                     !- Solar Absorptance 
    0.3;                     !- Visible Absorptance 

  Material,
    ConcCob10cm,             !- Name 
    Rough,                   !- Roughness 
    0.1,                     !- Thickness {m}
    1.75,                    !- Conductivity {W/m-K}
    2500.0,                  !- Density {kg/m3}
    1000.0,                  !- Specific Heat {J/kg-K}
    0.9,                     !- Thermal Absorptance 
    0.5,              !- Solar Absorptance 
    0.5;              !- Visible Absorptance 

  Material,
    LajeConcCob10cm,         !- Name 
    Rough,                   !- Roughness 
    0.1,                     !- Thickness {m}
    1.75,                    !- Conductivity {W/m-K}
    2500.0,                  !- Density {kg/m3}
    1000.0,                  !- Specific Heat {J/kg-K}
    0.9,                     !- Thermal Absorptance 
    0.4,                     !- Solar Absorptance 
    0.4;                     !- Visible Absorptance 

  Material,
    LajeMista12cm,           !- Name 
    Rough,                   !- Roughness 
    0.095,                   !- Thickness {m}
    1.05,                    !- Conductivity {W/m-K}
    1087.0,                  !- Density {kg/m3}
    920.0,                   !- Specific Heat {J/kg-K}
    0.9,                     !- Thermal Absorptance 
    0.8,                     !- Solar Absorptance 
    0.8;                     !- Visible Absorptance 

  Material,
    TelhaFC,                 !- Name 
    Rough,                   !- Roughness 
    0.008,                   !- Thickness {m}
    0.95,                    !- Conductivity {W/m-K}
    1900.0,                  !- Density {kg/m3}
    840.0,                   !- Specific Heat {J/kg-K}
    0.9,                     !- Thermal Absorptance 
    0.5,              !- Solar Absorptance 
    0.5;              !- Visible Absorptance 

  Material,
    ForMad8mm,               !- Name 
    Rough,                   !- Roughness 
    0.008,                   !- Thickness {m}
    0.15,                    !- Conductivity {W/m-K}
    650.0,                   !- Density {kg/m3}
    2300.0,                  !- Specific Heat {J/kg-K}
    0.9,                     !- Thermal Absorptance 
    0.4,                     !- Solar Absorptance 
    0.4;                     !- Visible Absorptance 

  Material,
    ForMadPinus8mm,          !- Name 
    Rough,                   !- Roughness 
    0.008,                   !- Thickness {m}
    0.23,                    !- Conductivity {W/m-K}
    650.0,                   !- Density {kg/m3}
    1340.0,                  !- Specific Heat {J/kg-K}
    0.9,                     !- Thermal Absorptance 
    0.4,                     !- Solar Absorptance 
    0.4;                     !- Visible Absorptance 

  Material,
    EPS1.6mm,                !- Name 
    MediumRough,             !- Roughness 
    0.0016,                  !- Thickness {m}
    0.035,                   !- Conductivity {W/m-K}
    30.0,                    !- Density {kg/m3}
    1400.0,                  !- Specific Heat {J/kg-K}
    0.9,                     !- Thermal Absorptance 
    0.8,                     !- Solar Absorptance 
    0.8;                     !- Visible Absorptance 

  Material,
    EPS2.3mm,                !- Name 
    MediumRough,             !- Roughness 
    0.0023,                  !- Thickness {m}
    0.035,                   !- Conductivity {W/m-K}
    30.0,                    !- Density {kg/m3}
    1400.0,                  !- Specific Heat {J/kg-K}
    0.9,                     !- Thermal Absorptance 
    0.8,                     !- Solar Absorptance 
    0.8;                     !- Visible Absorptance 

  Material,
    EPS4mm,                  !- Name 
    MediumRough,             !- Roughness 
    0.004,                   !- Thickness {m}
    0.035,                   !- Conductivity {W/m-K}
    30.0,                    !- Density {kg/m3}
    1400.0,                  !- Specific Heat {J/kg-K}
    0.9,                     !- Thermal Absorptance 
    0.8,                     !- Solar Absorptance 
    0.8;                     !- Visible Absorptance 

  Material,
    EPS5mm,                  !- Name 
    MediumRough,             !- Roughness 
    0.005,                   !- Thickness {m}
    0.035,                   !- Conductivity {W/m-K}
    30.0,                    !- Density {kg/m3}
    1400.0,                  !- Specific Heat {J/kg-K}
    0.9,                     !- Thermal Absorptance 
    0.8,                     !- Solar Absorptance 
    0.8;                     !- Visible Absorptance 

  Material,
    EPS7mm,                  !- Name 
    MediumRough,             !- Roughness 
    0.007,                   !- Thickness {m}
    0.035,                   !- Conductivity {W/m-K}
    30.0,                    !- Density {kg/m3}
    1400.0,                  !- Specific Heat {J/kg-K}
    0.9,                     !- Thermal Absorptance 
    0.8,                     !- Solar Absorptance 
    0.8;                     !- Visible Absorptance 

  Material,
    EPS13mm,                 !- Name 
    MediumRough,             !- Roughness 
    0.013,                   !- Thickness {m}
    0.035,                   !- Conductivity {W/m-K}
    30.0,                    !- Density {kg/m3}
    1400.0,                  !- Specific Heat {J/kg-K}
    0.9,                     !- Thermal Absorptance 
    0.8,                     !- Solar Absorptance 
    0.8;                     !- Visible Absorptance 

  Material,
    EPS17mm,                 !- Name 
    MediumRough,             !- Roughness 
    0.017,                   !- Thickness {m}
    0.035,                   !- Conductivity {W/m-K}
    30.0,                    !- Density {kg/m3}
    1400.0,                  !- Specific Heat {J/kg-K}
    0.9,                     !- Thermal Absorptance 
    0.8,                     !- Solar Absorptance 
    0.8;                     !- Visible Absorptance 

  Material,
    EPS20mm,                 !- Name 
    MediumRough,             !- Roughness 
    0.02,                    !- Thickness {m}
    0.035,                   !- Conductivity {W/m-K}
    30.0,                    !- Density {kg/m3}
    1400.0,                  !- Specific Heat {J/kg-K}
    0.9,                     !- Thermal Absorptance 
    0.8,                     !- Solar Absorptance 
    0.8;                     !- Visible Absorptance 

  Material,
    EPS25mm,                 !- Name 
    MediumRough,             !- Roughness 
    0.025,                   !- Thickness {m}
    0.035,                   !- Conductivity {W/m-K}
    30.0,                    !- Density {kg/m3}
    1400.0,                  !- Specific Heat {J/kg-K}
    0.9,                     !- Thermal Absorptance 
    0.8,                     !- Solar Absorptance 
    0.8;                     !- Visible Absorptance 

  Material,
    EPS50mm,                 !- Name 
    MediumRough,             !- Roughness 
    0.05,                    !- Thickness {m}
    0.035,                   !- Conductivity {W/m-K}
    30.0,                    !- Density {kg/m3}
    1400.0,                  !- Specific Heat {J/kg-K}
    0.9,                     !- Thermal Absorptance 
    0.8,                     !- Solar Absorptance 
    0.8;                     !- Visible Absorptance 

  Material,
    EPS55mm,                 !- Name 
    MediumRough,             !- Roughness 
    0.055,                   !- Thickness {m}
    0.035,                   !- Conductivity {W/m-K}
    30.0,                    !- Density {kg/m3}
    1400.0,                  !- Specific Heat {J/kg-K}
    0.9,                     !- Thermal Absorptance 
    0.8,                     !- Solar Absorptance 
    0.8;                     !- Visible Absorptance 

  Material,
    EPS60mm,                 !- Name 
    MediumRough,             !- Roughness 
    0.06,                    !- Thickness {m}
    0.035,                   !- Conductivity {W/m-K}
    30.0,                    !- Density {kg/m3}
    1400.0,                  !- Specific Heat {J/kg-K}
    0.9,                     !- Thermal Absorptance 
    0.8,                     !- Solar Absorptance 
    0.8;                     !- Visible Absorptance 

  Material,
    PortaMadInt3cm,          !- Name 
    Rough,                   !- Roughness 
    0.03,                    !- Thickness {m}
    0.15,                    !- Conductivity {W/m-K}
    650.0,                   !- Density {kg/m3}
    2300.0,                  !- Specific Heat {J/kg-K}
    0.9,                     !- Thermal Absorptance 
    0.4,                     !- Solar Absorptance 
    0.4;                     !- Visible Absorptance 

  Material,
    PortaMadExt3cm,          !- Name 
    Rough,                   !- Roughness 
    0.03,                    !- Thickness {m}
    0.15,                    !- Conductivity {W/m-K}
    614.0,                   !- Density {kg/m3}
    2300.0,                  !- Specific Heat {J/kg-K}
    0.9,                     !- Thermal Absorptance 
    0.6,                     !- Solar Absorptance 
    0.6;                     !- Visible Absorptance 

  Material,
    PisoCer10mm,             !- Name 
    MediumSmooth,            !- Roughness 
    0.01,                    !- Thickness {m}
    0.9,                     !- Conductivity {W/m-K}
    1600.0,                  !- Density {kg/m3}
    920.0,                   !- Specific Heat {J/kg-K}
    0.9,                     !- Thermal Absorptance 
    0.4,                     !- Solar Absorptance 