!-Generator IDFEditor 1.50
!-Option SortedOrder

!-NOTE: All comments with '!-' are ignored by the IDFEditor and are generated automatically.
!-      Use '!' comments if they need to be retained when using the IDFEditor.


!-   ===========  ALL OBJECTS IN CLASS: VERSION ===========

Version,
    8.8;                     !- Version Identifier


!-   ===========  ALL OBJECTS IN CLASS: SIMULATIONCONTROL ===========

SimulationControl,
    Yes,                     !- Do Zone Sizing Calculation
    No,                      !- Do System Sizing Calculation
    No,                      !- Do Plant Sizing Calculation
    No,                      !- Run Simulation for Sizing Periods
    Yes;                     !- Run Simulation for Weather File Run Periods


!-   ===========  ALL OBJECTS IN CLASS: BUILDING ===========

Building,
    caso_0001.idf,           !- Name
    0.0,                     !- North Axis {deg}
    City,                    !- Terrain
    0.5,                     !- Loads Convergence Tolerance Value
    0.5,                     !- Temperature Convergence Tolerance Value {deltaC}
    FullInteriorAndExterior, !- Solar Distribution
    ,                        !- Maximum Number of Warmup Days
    ;                        !- Minimum Number of Warmup Days


!-   ===========  ALL OBJECTS IN CLASS: TIMESTEP ===========

Timestep,
    6;                       !- Number of Timesteps per Hour


!-   ===========  ALL OBJECTS IN CLASS: SIZINGPERIOD:WEATHERFILEDAYS ===========

SizingPeriod:WeatherFileDays,
    ano,                     !- Name
    1,                       !- Begin Month
    1,                       !- Begin Day of Month
    12,                      !- End Month
    31,                      !- End Day of Month
    Monday,                  !- Day of Week for Start Day
    No,                      !- Use Weather File Daylight Saving Period
    No;                      !- Use Weather File Rain and Snow Indicators


!-   ===========  ALL OBJECTS IN CLASS: RUNPERIOD ===========

RunPeriod,
    Ano,                     !- Name
    1,                       !- Begin Month
    1,                       !- Begin Day of Month
    12,                      !- End Month
    31,                      !- End Day of Month
    UseWeatherFile,          !- Day of Week for Start Day
    No,                      !- Use Weather File Holidays and Special Days
    No,                      !- Use Weather File Daylight Saving Period
    No,                      !- Apply Weekend Holiday Rule
    No,                      !- Use Weather File Rain Indicators
    No,                      !- Use Weather File Snow Indicators
    1;                       !- Number of Times Runperiod to be Repeated


!-   ===========  ALL OBJECTS IN CLASS: SITE:GROUNDTEMPERATURE:BUILDINGSURFACE ===========

Site:GroundTemperature:BuildingSurface,
    20.0,                    !- January Ground Temperature {C}
    20.0,                    !- February Ground Temperature {C}
    20.0,                    !- March Ground Temperature {C}
    20.0,                    !- April Ground Temperature {C}
    20.0,                    !- May Ground Temperature {C}
    20.0,                    !- June Ground Temperature {C}
    20.0,                    !- July Ground Temperature {C}
    20.0,                    !- August Ground Temperature {C}
    20.0,                    !- September Ground Temperature {C}
    20.0,                    !- October Ground Temperature {C}
    20.0,                    !- November Ground Temperature {C}
    20.0;                    !- December Ground Temperature {C}


!-   ===========  ALL OBJECTS IN CLASS: SITE:GROUNDREFLECTANCE ===========

Site:GroundReflectance,
    0.2,                     !- January Ground Reflectance {dimensionless}
    0.2,                     !- February Ground Reflectance {dimensionless}
    0.2,                     !- March Ground Reflectance {dimensionless}
    0.2,                     !- April Ground Reflectance {dimensionless}
    0.2,                     !- May Ground Reflectance {dimensionless}
    0.2,                     !- June Ground Reflectance {dimensionless}
    0.2,                     !- July Ground Reflectance {dimensionless}
    0.2,                     !- August Ground Reflectance {dimensionless}
    0.2,                     !- September Ground Reflectance {dimensionless}
    0.2,                     !- October Ground Reflectance {dimensionless}
    0.2,                     !- November Ground Reflectance {dimensionless}
    0.2;                     !- December Ground Reflectance {dimensionless}


!-   ===========  ALL OBJECTS IN CLASS: SCHEDULETYPELIMITS ===========

ScheduleTypeLimits,
    fraction,                !- Name
    0.0,                     !- Lower Limit Value
    1.0,                     !- Upper Limit Value
    Continuous;              !- Numeric Type

ScheduleTypeLimits,
    qualquer,                !- Name
    -100.0,                  !- Lower Limit Value
    1000.0,                  !- Upper Limit Value
    Continuous;              !- Numeric Type

ScheduleTypeLimits,
    TEMPERATURE,             !- Name
    0.0,                     !- Lower Limit Value
    50.0,                    !- Upper Limit Value
    Continuous,              !- Numeric Type
    Temperature;             !- Unit Type

ScheduleTypeLimits,
    On_Off,                  !- Name
    0.0,                     !- Lower Limit Value
    1.0,                     !- Upper Limit Value
    Discrete,                !- Numeric Type
    Control;                 !- Unit Type

ScheduleTypeLimits,
    fracao,                  !- Name
    0.0,                     !- Lower Limit Value
    1.0,                     !- Upper Limit Value
    Continuous,              !- Numeric Type
    Percent;                 !- Unit Type

ScheduleTypeLimits,
    atividade,               !- Name
    0.0,                     !- Lower Limit Value
    1000.0,                  !- Upper Limit Value
    Continuous,              !- Numeric Type
    ActivityLevel;           !- Unit Type

ScheduleTypeLimits,
    control,                 !- Name
    0.0,                     !- Lower Limit Value
    4.0,                     !- Upper Limit Value
    Discrete;                !- Numeric Type


!-   ===========  ALL OBJECTS IN CLASS: SCHEDULE:COMPACT ===========

Schedule:Compact,
    OcupSala,                !- Name
    fracao,                  !- Schedule Type Limits Name
    Through: 12/31,          !- Field 1
    For: AllDays,            !- Field 2
    Until: 14:00,            !- Field 3
    0,                       !- Field 4
    Until: 18:00,            !- Field 5
    .5,                      !- Field 6
    Until: 22:00,            !- Field 7
    1,                       !- Field 8
    Until: 24:00,            !- Field 9
    0;                       !- Field 10

Schedule:Compact,
    OcupDorm,                !- Name
    fracao,                  !- Schedule Type Limits Name
    Through: 12/31,          !- Field 1
    For: AllDays,            !- Field 2
    Until:  8:00,            !- Field 3
    1,                       !- Field 4
    Until: 22:00,            !- Field 5
    0,                       !- Field 6
    Until: 24:00,            !- Field 7
    1;                       !- Field 8

Schedule:Compact,
    IlumSala,                !- Name
    fracao,                  !- Schedule Type Limits Name
    Through: 12/31,          !- Field 1
    For: AllDays,            !- Field 2
    Until: 16:00,            !- Field 3
    0,                       !- Field 4
    Until: 22:00,            !- Field 5
    1,                       !- Field 6
    Until: 24:00,            !- Field 7
    0;                       !- Field 8

Schedule:Compact,
    IlumDorm1,               !- Name
    fracao,                  !- Schedule Type Limits Name
    Through: 12/31,          !- Field 1
    For: AllDays,            !- Field 2
    Until: 6:00,             !- Field 3
    0,                       !- Field 4
    Until: 8:00,             !- Field 5
    1,                       !- Field 6
    Until: 22:00,            !- Field 7
    0,                       !- Field 8
    Until: 24:00,            !- Field 9
    1;                       !- Field 10

Schedule:Compact,
    IlumDorm2,               !- Name
    fracao,                  !- Schedule Type Limits Name
    Through: 12/31,          !- Field 1
    For: AllDays,            !- Field 2
    Until: 6:00,             !- Field 3
    0,                       !- Field 4
    Until: 8:00,             !- Field 5
    1,                       !- Field 6
    Until: 22:00,            !- Field 7
    0,                       !- Field 8
    Until: 24:00,            !- Field 9
    1;                       !- Field 10

Schedule:Compact,
    IlumDorm3,               !- Name
    fracao,                  !- Schedule Type Limits Name
    Through: 12/31,          !- Field 1
    For: AllDays,            !- Field 2
    Until: 6:00,             !- Field 3
    0,                       !- Field 4
    Until: 8:00,             !- Field 5
    1,                       !- Field 6
    Until: 22:00,            !- Field 7
    0,                       !- Field 8
    Until: 24:00,            !- Field 9
    1;                       !- Field 10

Schedule:Compact,
    AtivSala,                !- Name
    atividade,               !- Schedule Type Limits Name
    Through: 12/31,          !- Field 1
    For:AllDays,             !- Field 2
    Until: 24:00,            !- Field 3
    108;                     !- Field 4

Schedule:Compact,
    AtivDorm,                !- Name
    atividade,               !- Schedule Type Limits Name
    Through: 12/31,          !- Field 1
    For:AllDays,             !- Field 2
    Until: 24:00,            !- Field 3
    81;                      !- Field 4

Schedule:Compact,
    EquipSala,               !- Name
    fracao,                  !- Schedule Type Limits Name
    Through: 12/31,          !- Field 1
    For:AllDays,             !- Field 2
    Until: 14:00,            !- Field 3
    0,                       !- Field 4
    Until: 22:00,            !- Field 5
    1,                       !- Field 6
    Until: 24:00,            !- Field 7
    0;                       !- Field 8


!-   ===========  ALL OBJECTS IN CLASS: SCHEDULE:CONSTANT ===========

Schedule:Constant,
    HVAC_Sala,               !- Name
    On_Off,                  !- Schedule Type Limits Name
    0.0;                     !- Hourly Value

Schedule:Constant,
    VN_Sala,                 !- Name
    On_Off,                  !- Schedule Type Limits Name
    1.0;                     !- Hourly Value

Schedule:Constant,
    HVAC_Dorm1,              !- Name
    On_Off,                  !- Schedule Type Limits Name
    0.0;                     !- Hourly Value

Schedule:Constant,
    VN_Dorm1,                !- Name
    On_Off,                  !- Schedule Type Limits Name
    1.0;                     !- Hourly Value

Schedule:Constant,
    HVAC_Dorm2,              !- Name
    On_Off,                  !- Schedule Type Limits Name
    0.0;                     !- Hourly Value

Schedule:Constant,
    VN_Dorm2,                !- Name
    On_Off,                  !- Schedule Type Limits Name
    1.0;                     !- Hourly Value

Schedule:Constant,
    HVAC_Dorm3,              !- Name
    On_Off,                  !- Schedule Type Limits Name
    0.0;                     !- Hourly Value

Schedule:Constant,
    VN_Dorm3,                !- Name
    On_Off,                  !- Schedule Type Limits Name
    1.0;                     !- Hourly Value

Schedule:Constant,
    Veneziana_Dorm1,         !- Name
    On_Off,                  !- Schedule Type Limits Name
    0.0;                     !- Hourly Value

Schedule:Constant,
    Veneziana_Dorm2,         !- Name
    On_Off,                  !- Schedule Type Limits Name
    0.0;                     !- Hourly Value

Schedule:Constant,
    Veneziana_Dorm3,         !- Name
    On_Off,                  !- Schedule Type Limits Name
    0.0;                     !- Hourly Value

Schedule:Constant,
    Veneziana_Sala,          !- Name
    On_Off,                  !- Schedule Type Limits Name
    0.0;                     !- Hourly Value


!-   ===========  ALL OBJECTS IN CLASS: MATERIAL ===========

Material,
    RevestExt,               !- Name
    Rough,                   !- Roughness
    0.025,                   !- Thickness {m}
    1.15,                    !- Conductivity {W/m-K}
    2000.0,                  !- Density {kg/m3}
    1000.0,                  !- Specific Heat {J/kg-K}
    0.9,                     !- Thermal Absorptance
    0.1,                     !- Solar Absorptance
    0.1;                     !- Visible Absorptance

Material,
    RevestInt,               !- Name
    Rough,                   !- Roughness
    0.025,                   !- Thickness {m}
    1.15,                    !- Conductivity {W/m-K}
    2000.0,                  !- Density {kg/m3}
    1000.0,                  !- Specific Heat {J/kg-K}
    0.9,                     !- Thermal Absorptance
    0.4,                     !- Solar Absorptance
    0.4;                     !- Visible Absorptance

Material,
    Tij8Furos2.24,           !- Name
    Rough,                   !- Roughness
    0.033,                   !- Thickness {m}
    0.9,                     !- Conductivity {W/m-K}
    1103.0,                  !- Density {kg/m3}
    920.0,                   !- Specific Heat {J/kg-K}
    0.9,                     !- Thermal Absorptance
    0.7,                     !- Solar Absorptance
    0.7;                     !- Visible Absorptance

Material,
    EPS1mm,                  !- Name
    MediumRough,             !- Roughness
    0.001,                   !- Thickness {m}
    0.035,                   !- Conductivity {W/m-K}
    30.0,                    !- Density {kg/m3}
    1400.0,                  !- Specific Heat {J/kg-K}
    0.9,                     !- Thermal Absorptance
    0.8,                     !- Solar Absorptance
    0.8;                     !- Visible Absorptance

Material,
    EPS3mm,                  !- Name
    MediumRough,             !- Roughness
    0.003,                   !- Thickness {m}
    0.035,                   !- Conductivity {W/m-K}
    30.0,                    !- Density {kg/m3}
    1400.0,                  !- Specific Heat {J/kg-K}
    0.9,                     !- Thermal Absorptance
    0.8,                     !- Solar Absorptance
    0.8;                     !- Visible Absorptance

Material,
    EPS1cm,                  !- Name
    MediumRough,             !- Roughness
    0.01,                    !- Thickness {m}
    0.035,                   !- Conductivity {W/m-K}
    30.0,                    !- Density {kg/m3}
    1400.0,                  !- Specific Heat {J/kg-K}
    0.9,                     !- Thermal Absorptance
    0.8,                     !- Solar Absorptance
    0.8;                     !- Visible Absorptance

Material,
    EPS1.5cm,                !- Name
    MediumRough,             !- Roughness
    0.015,                   !- Thickness {m}
    0.035,                   !- Conductivity {W/m-K}
    30.0,                    !- Density {kg/m3}
    1400.0,                  !- Specific Heat {J/kg-K}
    0.9,                     !- Thermal Absorptance
    0.8,                     !- Solar Absorptance
    0.8;                     !- Visible Absorptance

Material,
    EPS2cm,                  !- Name
    MediumRough,             !- Roughness
    0.02,                    !- Thickness {m}
    0.035,                   !- Conductivity {W/m-K}
    30.0,                    !- Density {kg/m3}
    1400.0,                  !- Specific Heat {J/kg-K}
    0.9,                     !- Thermal Absorptance
    0.8,                     !- Solar Absorptance
    0.8;                     !- Visible Absorptance

Material,
    EPS2.5cm,                !- Name
    MediumRough,             !- Roughness
    0.025,                   !- Thickness {m}
    0.035,                   !- Conductivity {W/m-K}
    30.0,                    !- Density {kg/m3}
    1400.0,                  !- Specific Heat {J/kg-K}
    0.9,                     !- Thermal Absorptance
    0.8,                     !- Solar Absorptance
    0.8;                     !- Visible Absorptance

Material,
    EPS4cm,                  !- Name
    MediumRough,             !- Roughness
    0.04,                    !- Thickness {m}
    0.035,                   !- Conductivity {W/m-K}
    30.0,                    !- Density {kg/m3}
    1400.0,                  !- Specific Heat {J/kg-K}
    0.9,                     !- Thermal Absorptance
    0.8,                     !- Solar Absorptance
    0.8;                     !- Visible Absorptance

Material,
    EPS6cm,                  !- Name
    MediumRough,             !- Roughness
    0.06,                    !- Thickness {m}
    0.035,                   !- Conductivity {W/m-K}
    30.0,                    !- Density {kg/m3}
    1400.0,                  !- Specific Heat {J/kg-K}
    0.9,                     !- Thermal Absorptance
    0.8,                     !- Solar Absorptance
    0.8;                     !- Visible Absorptance

Material,
    TijMacicoExt10cm,        !- Name
    MediumSmooth,            !- Roughness
    0.1,                     !- Thickness {m}
    0.9,                     !- Conductivity {W/m-K}
    1600.0,                  !- Density {kg/m3}
    920.0,                   !- Specific Heat {J/kg-K}
    0.9,                     !- Thermal Absorptance
    0.6,                     !- Solar Absorptance
    0.6;                     !- Visible Absorptance

Material,
    TijMacicoInt,            !- Name
    MediumSmooth,            !- Roughness
    0.1,                     !- Thickness {m}
    0.9,                     !- Conductivity {W/m-K}
    1600.0,                  !- Density {kg/m3}
    920.0,                   !- Specific Heat {J/kg-K}
    0.9,                     !- Thermal Absorptance
    0.3,                     !- Solar Absorptance
    0.3;                     !- Visible Absorptance

Material,
    ConcParExt10cm,          !- Name
    Rough,                   !- Roughness
    0.1,                     !- Thickness {m}
    1.75,                    !- Conductivity {W/m-K}
    2500.0,                  !- Density {kg/m3}
    1000.0,                  !- Specific Heat {J/kg-K}
    0.9,                     !- Thermal Absorptance
    0.6,                     !- Solar Absorptance
    0.6;                     !- Visible Absorptance

Material,
    ConcParInt10cm,          !- Name
    Rough,                   !- Roughness
    0.1,                     !- Thickness {m}
    1.75,                    !- Conductivity {W/m-K}
    2500.0,                  !- Density {kg/m3}
    1000.0,                  !- Specific Heat {J/kg-K}
    0.9,                     !- Thermal Absorptance
    0.3,                     !- Solar Absorptance
    0.3;                     !- Visible Absorptance

Material,
    FibroParExt,             !- Name
    Smooth,                  !- Roughness
    0.012,                   !- Thickness {m}
    0.95,                    !- Conductivity {W/m-K}
    1900.0,                  !- Density {kg/m3}
    840.0,                   !- Specific Heat {J/kg-K}
    0.9,                     !- Thermal Absorptance
    0.1,                     !- Solar Absorptance
    0.1;                     !- Visible Absorptance

Material,
    GessoParInt,             !- Name
    MediumSmooth,            !- Roughness
    0.0125,                  !- Thickness {m}
    0.35,                    !- Conductivity {W/m-K}
    750.0,                   !- Density {kg/m3}
    840.0,                   !- Specific Heat {J/kg-K}
    0.9,                     !- Thermal Absorptance
    0.3,                     !- Solar Absorptance
    0.3;                     !- Visible Absorptance

Material,
    LaVidro8cm,              !- Name
    MediumRough,             !- Roughness
    0.08,                    !- Thickness {m}
    0.045,                   !- Conductivity {W/m-K}
    50.0,                    !- Density {kg/m3}
    700.0,                   !- Specific Heat {J/kg-K}
    0.9,                     !- Thermal Absorptance
    0.8,                     !- Solar Absorptance
    0.8;                     !- Visible Absorptance

Material,
    LaVidro3.4cm,            !- Name
    MediumRough,             !- Roughness
    0.034,                   !- Thickness {m}
    0.045,                   !- Conductivity {W/m-K}
    50.0,                    !- Density {kg/m3}
    700.0,                   !- Specific Heat {J/kg-K}
    0.9,                     !- Thermal Absorptance
    0.8,                     !- Solar Absorptance
    0.8;                     !- Visible Absorptance

Material,
    LaVidro2cm,              !- Name
    MediumRough,             !- Roughness
    0.02,                    !- Thickness {m}
    0.045,                   !- Conductivity {W/m-K}
    50.0,                    !- Density {kg/m3}
    700.0,                   !- Specific Heat {J/kg-K}
    0.9,                     !- Thermal Absorptance
    0.8,                     !- Solar Absorptance
    0.8;                     !- Visible Absorptance

Material,
    LaVidro1cm,              !- Name
    MediumRough,             !- Roughness
    0.0102,                  !- Thickness {m}
    0.045,                   !- Conductivity {W/m-K}
    50.0,                    !- Density {kg/m3}
    700.0,                   !- Specific Heat {J/kg-K}
    0.9,                     !- Thermal Absorptance
    0.8,                     !- Solar Absorptance
    0.8;                     !- Visible Absorptance

Material,
    LaVidro2.5mm,            !- Name
    MediumRough,             !- Roughness
    0.0025,                  !- Thickness {m}
    0.045,                   !- Conductivity {W/m-K}
    50.0,                    !- Density {kg/m3}
    700.0,                   !- Specific Heat {J/kg-K}
    0.9,                     !- Thermal Absorptance
    0.8,                     !- Solar Absorptance
    0.8;                     !- Visible Absorptance

Material,
    LaVidro5mm,              !- Name
    MediumRough,             !- Roughness
    0.005,                   !- Thickness {m}
    0.045,                   !- Conductivity {W/m-K}
    50.0,                    !- Density {kg/m3}
    700.0,                   !- Specific Heat {J/kg-K}
    0.9,                     !- Thermal Absorptance
    0.8,                     !- Solar Absorptance
    0.8;                     !- Visible Absorptance

Material,
    RevestCob,               !- Name
    Rough,                   !- Roughness
    0.025,                   !- Thickness {m}
    1.15,                    !- Conductivity {W/m-K}
    2000.0,                  !- Density {kg/m3}
    1000.0,                  !- Specific Heat {J/kg-K}
    0.9,                     !- Thermal Absorptance
    0.3,                     !- Solar Absorptance
    0.3;                     !- Visible Absorptance

Material,
    RevestCob1cm,            !- Name
    Rough,                   !- Roughness
    0.01,                    !- Thickness {m}
    1.15,                    !- Conductivity {W/m-K}
    2500.0,                  !- Density {kg/m3}
    1000.0,                  !- Specific Heat {J/kg-K}
    0.9,                     !- Thermal Absorptance
    0.1,                     !- Solar Absorptance
    0.1;                     !- Visible Absorptance

Material,
    RevestCob4cm,            !- Name
    Rough,                   !- Roughness
    0.04,                    !- Thickness {m}
    1.15,                    !- Conductivity {W/m-K}
    2500.0,                  !- Density {kg/m3}
    1000.0,                  !- Specific Heat {J/kg-K}
    0.9,                     !- Thermal Absorptance
    0.3,                     !- Solar Absorptance
    0.3;                     !- Visible Absorptance

Material,
    ConcCob10cm,             !- Name
    Rough,                   !- Roughness
    0.1,                     !- Thickness {m}
    1.75,                    !- Conductivity {W/m-K}
    2500.0,                  !- Density {kg/m3}
    1000.0,                  !- Specific Heat {J/kg-K}
    0.9,                     !- Thermal Absorptance
    0.1,                     !- Solar Absorptance
    0.1;                     !- Visible Absorptance

Material,
    LajeConcCob10cm,         !- Name
    Rough,                   !- Roughness
    0.1,                     !- Thickness {m}
    1.75,                    !- Conductivity {W/m-K}
    2500.0,                  !- Density {kg/m3}
    1000.0,                  !- Specific Heat {J/kg-K}
    0.9,                     !- Thermal Absorptance
    0.4,                     !- Solar Absorptance
    0.4;                     !- Visible Absorptance

Material,
    LajeMista12cm,           !- Name
    Rough,                   !- Roughness
    0.095,                   !- Thickness {m}
    1.05,                    !- Conductivity {W/m-K}
    1087.0,                  !- Density {kg/m3}
    920.0,                   !- Specific Heat {J/kg-K}
    0.9,                     !- Thermal Absorptance
    0.8,                     !- Solar Absorptance
    0.8;                     !- Visible Absorptance

Material,
    TelhaFC,                 !- Name
    Rough,                   !- Roughness
    0.008,                   !- Thickness {m}
    0.95,                    !- Conductivity {W/m-K}
    1900.0,                  !- Density {kg/m3}
    840.0,                   !- Specific Heat {J/kg-K}
    0.9,                     !- Thermal Absorptance
    0.1,                     !- Solar Absorptance
    0.1;                     !- Visible Absorptance

Material,
    ForMad8mm,               !- Name
    Rough,                   !- Roughness
    0.008,                   !- Thickness {m}
    0.15,                    !- Conductivity {W/m-K}
    650.0,                   !- Density {kg/m3}
    2300.0,                  !- Specific Heat {J/kg-K}
    0.9,                     !- Thermal Absorptance
    0.4,                     !- Solar Absorptance
    0.4;                     !- Visible Absorptance

Material,
    ForMadPinus8mm,          !- Name
    Rough,                   !- Roughness
    0.008,                   !- Thickness {m}
    0.23,                    !- Conductivity {W/m-K}
    650.0,                   !- Density {kg/m3}
    1340.0,                  !- Specific Heat {J/kg-K}
    0.9,                     !- Thermal Absorptance
    0.4,                     !- Solar Absorptance
    0.4;                     !- Visible Absorptance

Material,
    EPS1.6mm,                !- Name
    MediumRough,             !- Roughness
    0.0016,                  !- Thickness {m}
    0.035,                   !- Conductivity {W/m-K}
    30.0,                    !- Density {kg/m3}
    1400.0,                  !- Specific Heat {J/kg-K}
    0.9,                     !- Thermal Absorptance
    0.8,                     !- Solar Absorptance
    0.8;                     !- Visible Absorptance

Material,
    EPS2.3mm,                !- Name
    MediumRough,             !- Roughness
    0.0023,                  !- Thickness {m}
    0.035,                   !- Conductivity {W/m-K}
    30.0,                    !- Density {kg/m3}
    1400.0,                  !- Specific Heat {J/kg-K}
    0.9,                     !- Thermal Absorptance
    0.8,                     !- Solar Absorptance
    0.8;                     !- Visible Absorptance

Material,
    EPS4mm,                  !- Name
    MediumRough,             !- Roughness
    0.004,                   !- Thickness {m}
    0.035,                   !- Conductivity {W/m-K}
    30.0,                    !- Density {kg/m3}
    1400.0,                  !- Specific Heat {J/kg-K}
    0.9,                     !- Thermal Absorptance
    0.8,                     !- Solar Absorptance
    0.8;                     !- Visible Absorptance

Material,
    EPS5mm,                  !- Name
    MediumRough,             !- Roughness
    0.005,                   !- Thickness {m}
    0.035,                   !- Conductivity {W/m-K}
    30.0,                    !- Density {kg/m3}
    1400.0,                  !- Specific Heat {J/kg-K}
    0.9,                     !- Thermal Absorptance
    0.8,                     !- Solar Absorptance
    0.8;                     !- Visible Absorptance

Material,
    EPS7mm,                  !- Name
    MediumRough,             !- Roughness
    0.007,                   !- Thickness {m}
    0.035,                   !- Conductivity {W/m-K}
    30.0,                    !- Density {kg/m3}
    1400.0,                  !- Specific Heat {J/kg-K}
    0.9,                     !- Thermal Absorptance
    0.8,                     !- Solar Absorptance
    0.8;                     !- Visible Absorptance

Material,
    EPS13mm,                 !- Name
    MediumRough,             !- Roughness
    0.013,                   !- Thickness {m}
    0.035,                   !- Conductivity {W/m-K}
    30.0,                    !- Density {kg/m3}
    1400.0,                  !- Specific Heat {J/kg-K}
    0.9,                     !- Thermal Absorptance
    0.8,                     !- Solar Absorptance
    0.8;                     !- Visible Absorptance
